Version 4
SHEET 1 880 680
WIRE 336 0 -96 0
WIRE 480 0 336 0
WIRE 592 0 480 0
WIRE 480 48 480 0
WIRE 80 80 32 80
WIRE 336 80 336 0
WIRE 336 80 304 80
WIRE 32 96 32 80
WIRE 592 128 592 80
WIRE 192 144 80 144
WIRE 480 144 480 128
WIRE 480 144 304 144
WIRE 560 144 480 144
WIRE 688 144 560 144
WIRE -64 208 -160 208
WIRE 80 208 16 208
WIRE 192 208 192 144
WIRE 304 208 192 208
WIRE 416 208 304 208
WIRE 560 240 560 208
WIRE 560 240 512 240
WIRE -96 272 -96 0
WIRE 80 272 -96 272
WIRE 352 272 304 272
WIRE 416 288 416 208
WIRE 480 288 416 288
WIRE 512 288 512 240
WIRE 608 288 592 288
WIRE 688 288 688 208
WIRE 352 304 352 272
WIRE 480 320 480 288
WIRE 608 320 608 288
WIRE 608 320 480 320
WIRE -160 416 -160 208
WIRE 352 416 352 368
WIRE 480 416 480 384
WIRE 480 416 352 416
WIRE 352 448 352 416
FLAG 592 128 0
FLAG -160 416 0
FLAG 352 448 0
FLAG 32 96 0
SYMBOL Misc\\NE555 192 176 R0
SYMATTR InstName U1
SYMBOL voltage 592 -16 R0
WINDOW 123 0 0 Left 0
WINDOW 39 0 0 Left 0
SYMATTR InstName V1
SYMATTR Value 5
SYMBOL res 464 32 R0
SYMATTR InstName R1
SYMATTR Value 500
SYMBOL cap 464 320 R0
SYMATTR InstName C1
SYMATTR Value 10n
SYMBOL cap 336 304 R0
SYMATTR InstName C2
SYMATTR Value 0.01µ
SYMBOL res 32 192 R90
WINDOW 0 0 56 VBottom 2
WINDOW 3 32 56 VTop 2
SYMATTR InstName R3
SYMATTR Value 1k
SYMBOL diode 544 144 R0
SYMATTR InstName D1
SYMBOL diode 704 208 R180
WINDOW 0 24 64 Left 2
WINDOW 3 24 0 Left 2
SYMATTR InstName D2
SYMBOL res 704 272 R90
WINDOW 0 0 56 VBottom 2
WINDOW 3 32 56 VTop 2
SYMATTR InstName R4
SYMATTR Value 20k
SYMBOL res 608 272 R90
WINDOW 0 0 56 VBottom 2
WINDOW 3 32 56 VTop 2
SYMATTR InstName R5
SYMATTR Value 80k
TEXT -184 472 Left 2 !.tran 5ms
